/*--------------------------------*- C++ -*----------------------------------*\
  =========                 |
  \\      /  F ield         | OpenFOAM: The Open Source CFD Toolbox
   \\    /   O peration     | Website:  https://openfoam.org
    \\  /    A nd           | Version:  7
     \\/     M anipulation  |
\*---------------------------------------------------------------------------*/
FoamFile
{
    version     2.0;
    format      ascii;
    class       dictionary;
    location    "system";
    object      controlDict;
}
// * * * * * * * * * * * * * * * * * * * * * * * * * * * * * * * * * * * * * //

application     icoFoam;

startFrom        startTime;

startTime       0;

stopAt           endTime;

endTime         175;

deltaT          0.001;

writeControl     timeStep;

writeInterval    1000;

purgeWrite      0;

writeFormat     ascii;

writePrecision  6;

writeCompression off;

timeFormat      general;

timePrecision   6;

runTimeModifiable true;

functions
{
  vorticity
    {
        type            vorticity;
        libs            ("libfieldFunctionObjects.so");
        writeControl    writeTime;
    }

    forces
    {
        type            forceCoeffs;
        libs            ("libforces.so");
        log             yes;
        writeControl timeStep;
        writeInterval 40;

        patches
        (
            flatplate
        );

        rho rhoInf;
      p p;
      U U;
        rhoInf      1;

        CofR        (0 0 0);
        liftDir     (0 1 0);
        dragDir     (1 0 0);
        pitchAxis   (0 0 1);
        magUInf     1;
        lRef        1;
        Aref        0.25;
    }

}


// ************************************************************************* //
